*Heading
** Job name: Job Model name: Model-1
** Generated by: Abaqus/CAE Student Edition 2019
*Preprint, echo=NO, model=NO, history=NO, contact=NO
**
** PARTS
**
*Part, name=Beam
*Node
      1, -0.479999661,           0.
      2, -0.229999676,           0.
      3, -0.146666676,           0.
      4, 0.0199999996,           0.
      5,  0.186666667,           0.
      6,  0.270000011,           0.
      7,  0.519999981,           0.
      8, -0.478898346,           0.
      9, -0.477797031,           0.
     10, -0.476695716,           0.
     11, -0.475594372,           0.
     12, -0.474493057,           0.
     13, -0.473391742,           0.
     14, -0.472290426,           0.
     15, -0.471189111,           0.
     16, -0.470087767,           0.
     17, -0.468986452,           0.
     18, -0.467885137,           0.
     19, -0.466783822,           0.
     20, -0.465682477,           0.
** ... 891 like lines cut
*Element, type=B21
  1,   1,   8
  2,   8,   9
  3,   9,  10
  4,  10,  11
  5,  11,  12
  6,  12,  13
  7,  13,  14
  8,  14,  15
  9,  15,  16
 10,  16,  17
 11,  17,  18
 12,  18,  19
 13,  19,  20
 14,  20,  21
 15,  21,  22
 16,  22,  23
 17,  23,  24
 18,  24,  25
 19,  25,  26
 20,  26,  27
** ... 890 like lines cut
*Nset, nset=Midpoint
 4,
*Nset, nset=L/4
 2,
*Nset, nset=L/3
 3,
*Nset, nset=TwoL/3
 5,
*Nset, nset=ThreeL/4
 6,
*Nset, nset=All, generate
   1,  911,    1
*Elset, elset=All, generate
   1,  910,    1
*Nset, nset="Left Point"
 1,
*Nset, nset="Right Point"
 7,
** Section: Section-1  Profile: Square
*Beam Section, elset=All, material=Material-1, temperature=GRADIENTS, section=RECT
0.1, 0.1
0.,0.,-1.
*End Part
**  
**
** ASSEMBLY
**
*Assembly, name=Assembly
**  
*Instance, name=Beam-1, part=Beam
*End Instance
**  
*End Assembly
** 
** MATERIALS
** 
*Material, name=Material-1
*Elastic
 2e+11, 0.33
** 
** BOUNDARY CONDITIONS
** 
** Name: Left Support Type: Displacement/Rotation
*Boundary
Beam-1."Left Point", 1, 1
Beam-1."Left Point", 2, 2
** Name: Right Support Type: Displacement/Rotation
*Boundary
Beam-1."Right Point", 2, 2
** ----------------------------------------------------------------
** 
** STEP: Load
** 
*Step, name=Load, nlgeom=NO
Loaded
*Static
1., 1., 1e-05, 1.
** 
** LOADS
** 
** Name: Load   Type: Concentrated force
*Cload
Beam-1.TwoL/3, 2, -10000.
** 
** OUTPUT REQUESTS
** 
*Restart, write, frequency=0
** 
** FIELD OUTPUT: F-Output-1
** 
*Output, field, variable=PRESELECT
** 
** HISTORY OUTPUT: H-Output-1
** 
*Output, history, variable=PRESELECT
*End Step
