*Heading
** Job name: Job-1 Model name: Model-1
** Generated by: Abaqus/CAE Student Edition 2019
*Preprint, echo=NO, model=NO, history=NO, contact=NO
**
** PARTS
**
*Part, name=Part-2
*Node
      1,   2.42705107,   1.76335573,           0.
      2,  0.927051008,   2.85316944,           0.
      3,          1.5,   2.06457281,   1.57719338
      4,           0.,   1.57719338,   2.55195236
      5,         -1.5,  0.487379551,   2.55195236
      6, -0.927051008,  -1.27597618,   2.55195236
      7,  0.927051008,  -1.27597618,   2.55195236
      8,          1.5,  0.487379551,   2.55195236
      9,           0.,   2.68328166,   1.34164083
     10, -0.927051008,   2.85316944,           0.
     11,  -2.42705107,   1.76335573,           0.
     12,         -1.5,   2.06457281,   1.57719338
     13,   2.55195236,  0.829179585,   1.34164083
     14,           0.,           0.,           3.
     15,  -2.55195236,  0.829179585,   1.34164083
     16,          -3.,           0.,           0.
     17,  -2.42705107,  -1.76335573,           0.
     18,  -2.42705107,  -0.78859669,   1.57719338
     19,  -1.57719338,  -2.17082047,   1.34164083
     20, -0.927051008,  -2.85316944,           0.
** ... 171 like lines cut
*Element, type=B31
1,  1, 27
2, 27, 28
3, 28, 29
4, 29,  2
5,  2, 30
6, 30, 31
7, 31, 32
8, 32,  3
 9,  3, 33
10, 33, 34
11, 34, 35
12, 35,  4
13,  5, 36
14, 36, 37
15, 37, 38
16, 38,  4
17,  6, 39
18, 39, 40
19, 40, 41
20, 41,  5
** ... 210 like lines cut
*Nset, nset=All_Members, generate
   1,  191,    1
*Elset, elset=All_Members, generate
   1,  230,    1
** Section: Bean Section  Profile: Circular_Bar
*Beam Section, elset=All_Members, material=Aluminum_6061, temperature=GRADIENTS, section=CIRC
0.025
0.,0.,-1.
*End Part
**  
*Part, name=Part-3
*Node
      1,           0.,    2.8499999,           0.
      2,  0.492951661,   2.80141115,           0.
      3,  0.970359921,   2.66933727,           0.
      4,   1.41819334,   2.45765948,           0.
      5,   1.82328975,   2.17259955,           0.
      6,   2.17374301,   1.82253575,           0.
      7,   2.45925283,   1.41775644,           0.
      8,    2.6714282,  0.970158517,           0.
      9,    2.8040328,  0.492897362,           0.
     10,   2.85316944,           0.,           0.
     11,  0.485462636,   2.80141115, -0.0856001601
     12,  0.955617964,   2.66933727, -0.168501228
     13,   1.39664781,   2.45765948, -0.246266693
     14,   1.79558992,   2.17259955, -0.316610932
     15,   2.14071894,   1.82253575,   -0.3774665
     16,   2.42189145,   1.41775644, -0.427044779
     17,   2.63084316,  0.970158517, -0.463888645
     18,   2.76143336,  0.492897362, -0.486915201
     19,   2.80982351,           0., -0.495447695
     20,   0.46322304,   2.80141115, -0.168599397
** ... 305 like lines cut
*Element, type=S4
  1,   2,   3,  12,  11
  2,   3,   4,  13,  12
  3,   4,   5,  14,  13
  4,   5,   6,  15,  14
  5,   6,   7,  16,  15
  6,   7,   8,  17,  16
  7,   8,   9,  18,  17
  8,   9,  10,  19,  18
  9,  11,  12,  21,  20
 10,  12,  13,  22,  21
 11,  13,  14,  23,  22
 12,  14,  15,  24,  23
 13,  15,  16,  25,  24
 14,  16,  17,  26,  25
 15,  17,  18,  27,  26
 16,  18,  19,  28,  27
 17,  20,  21,  30,  29
 18,  21,  22,  31,  30
 19,  22,  23,  32,  31
 20,  23,  24,  33,  32
** ... 268 like lines cut
*Element, type=S3
289,   1,   2,  11
290,   1,  11,  20
291,   1,  20,  29
292,   1,  29,  38
293,   1,  38,  47
294,   1,  47,  56
295,   1,  56,  65
296,   1,  65,  74
297,   1,  74,  83
298,   1,  83,  92
299,   1,  92, 101
300,   1, 101, 110
301,   1, 110, 119
302,   1, 119, 128
303,   1, 128, 137
304,   1, 137, 146
305,   1, 146, 155
306,   1, 155, 164
307,   1, 164, 173
308,   1, 173, 182
** ... 16 like lines cut
*Nset, nset=Set-1, generate
   1,  325,    1
*Elset, elset=Set-1, generate
   1,  324,    1
** Section: Kevlar_Section
*Shell Section, elset=Set-1, material=kevlar
0.1, 5
*End Part
**  
**
** ASSEMBLY
**
*Assembly, name=Assembly
**  
*Instance, name=Part-2-1, part=Part-2
-0.440406912619429, 4.73531392340201, -2.85317000000002
*End Instance
**  
*Instance, name=Part-3-1, part=Part-3
-0.440406893458311, 4.73531399775849,     -2.85317
-0.440406893458311, 4.73531399775849,     -2.85317, -0.101446813451913, 5.40056061251017, -2.18792338524832, 142.550785292882
*End Instance
**  
*Nset, nset=Dome_Edge, instance=Part-3-1, generate
  10,  325,    9
*Elset, elset=Dome_Edge, instance=Part-3-1, generate
   8,  288,    8
*Nset, nset=Geodesic_Frame, instance=Part-2-1, generate
   1,  191,    1
*Elset, elset=Geodesic_Frame, instance=Part-2-1, generate
   1,  230,    1
*Nset, nset=Mounting_Points, instance=Part-2-1
  1,  2, 10, 11, 16, 17, 20, 21, 24, 25
*Nset, nset=Set-2, instance=Part-2-1
 23,
*Nset, nset=Set-4, instance=Part-3-1, generate
   1,  325,    1
*Elset, elset=Set-4, instance=Part-3-1, generate
   1,  324,    1
*Nset, nset=Set-5, instance=Part-3-1, generate
  10,  325,    9
*Elset, elset=Set-5, instance=Part-3-1, generate
   8,  288,    8
*Nset, nset=Set-6, instance=Part-3-1, generate
  10,  325,    9
*Elset, elset=Set-6, instance=Part-3-1, generate
   8,  288,    8
*Nset, nset=s_Set-7, instance=Part-2-1, generate
   1,  191,    1
*Elset, elset=s_Set-7, instance=Part-2-1, generate
   1,  230,    1
*Nset, nset=s_Set-9, instance=Part-2-1, generate
   1,  191,    1
*Elset, elset=s_Set-9, instance=Part-2-1, generate
   1,  230,    1
*Elset, elset=_Pressure_Surface_SPOS, internal, instance=Part-3-1, generate
   1,  324,    1
*Surface, type=ELEMENT, name=Pressure_Surface
_Pressure_Surface_SPOS, SPOS
*Elset, elset=_m_Surf-1_SPOS, internal, instance=Part-3-1, generate
   1,  324,    1
*Surface, type=ELEMENT, name=m_Surf-1
_m_Surf-1_SPOS, SPOS
*Elset, elset=_m_Surf-3_SPOS, internal, instance=Part-3-1, generate
   1,  324,    1
*Surface, type=ELEMENT, name=m_Surf-3
_m_Surf-3_SPOS, SPOS
*Elset, elset=_m_Surf-4_SPOS, internal, instance=Part-3-1, generate
   1,  324,    1
*Surface, type=ELEMENT, name=m_Surf-4
_m_Surf-4_SPOS, SPOS
*Surface, type=NODE, name=s_Set-9_CNS_, internal
s_Set-9, 1.
*End Assembly
** 
** MATERIALS
** 
*Material, name=Aluminum_6061
*Density
2720.,
*Elastic
 7e+10, 0.33
*Material, name=kevlar
*Density
1380.,
*Elastic
10000., 0.36
** 
** INTERACTION PROPERTIES
** 
*Surface Interaction, name=IntProp-1
1.,
*Friction
0.,
** 
** INTERACTIONS
** 
** Interaction: Int-1
*Contact Pair, interaction=IntProp-1, type=SURFACE TO SURFACE
s_Set-9_CNS_, m_Surf-4
** ----------------------------------------------------------------
** 
** STEP: Step-1
** 
*Step, name=Step-1, nlgeom=NO
*Dynamic
1.,1.,1e-05
** 
** BOUNDARY CONDITIONS
** 
** Name: BC-1 Type: Displacement/Rotation
*Boundary
Mounting_Points, 1, 1
Mounting_Points, 2, 2
Mounting_Points, 3, 3
** Name: BC-2 Type: Displacement/Rotation
*Boundary
Dome_Edge, 1, 1
Dome_Edge, 2, 2
Dome_Edge, 3, 3
** 
** LOADS
** 
** Name: Load-1   Type: Pressure
*Dsload
Pressure_Surface, P, -101.
** 
** OUTPUT REQUESTS
** 
*Restart, write, frequency=0
** 
** FIELD OUTPUT: F-Output-1
** 
*Output, field, variable=PRESELECT
** 
** HISTORY OUTPUT: H-Output-1
** 
*Output, history, variable=PRESELECT
*End Step
