*Heading
** Job name: Beam-job Model name: Model-1
** Generated by: Abaqus/CAE Student Edition 2019
*Preprint, echo=NO, model=NO, history=NO, contact=NO
**
** PARTS
**
*Part, name=Part-1
*Node
      1,  0.036144834, -0.012048278,           0.
      2, 0.0340776742, 0.0170388371,           0.
      3,  0.012048278,  0.036144834,           0.
      4, -0.0170388371, 0.0340776742,           0.
      5, -0.036144834,  0.012048278,           0.
      6, -0.0340776742, -0.0170388371,           0.
      7, -0.012048278, -0.036144834,           0.
      8, 0.0170388371, -0.0340776742,           0.
      9, -0.00456300145, -0.0501930192,           0.
     10, 0.0322652943, -0.038718354,           0.
     11, 0.0501930192, -0.00456300145,           0.
     12,  0.038718354, 0.0322652943,           0.
     13, 0.00456300145, 0.0501930192,           0.
     14, -0.0322652943,  0.038718354,           0.
     15, -0.0501930192, 0.00456300145,           0.
     16, -0.038718354, -0.0322652943,           0.
     17,  0.036144834, -0.012048278,  0.142857149
     18, 0.0340776742, 0.0170388371,  0.142857149
     19,  0.012048278,  0.036144834,  0.142857149
     20, -0.0170388371, 0.0340776742,  0.142857149
** ... 220 like lines cut
*Element, type=C3D8R
  1,  17,  27,  26,  24,   1,  11,  10,   8
  2,  19,  29,  28,  18,   3,  13,  12,   2
  3,  31,  21,  22,  32,  15,   5,   6,  16
  4,  21,  31,  30,  20,   5,  15,  14,   4
  5,  29,  19,  20,  30,  13,   3,   4,  14
  6,  27,  17,  18,  28,  11,   1,   2,  12
  7,  25,  23,  24,  26,   9,   7,   8,  10
  8,  32,  22,  23,  25,  16,   6,   7,   9
  9,  33,  43,  42,  40,  17,  27,  26,  24
 10,  35,  45,  44,  34,  19,  29,  28,  18
 11,  47,  37,  38,  48,  31,  21,  22,  32
 12,  37,  47,  46,  36,  21,  31,  30,  20
 13,  45,  35,  36,  46,  29,  19,  20,  30
 14,  43,  33,  34,  44,  27,  17,  18,  28
 15,  41,  39,  40,  42,  25,  23,  24,  26
 16,  48,  38,  39,  41,  32,  22,  23,  25
 17,  49,  59,  58,  56,  33,  43,  42,  40
 18,  51,  61,  60,  50,  35,  45,  44,  34
 19,  63,  53,  54,  64,  47,  37,  38,  48
 20,  53,  63,  62,  52,  37,  47,  46,  36
** ... 92 like lines cut
*Nset, nset=Beam, generate
   1,  240,    1
*Elset, elset=Beam, generate
   1,  112,    1
*Nset, nset=Set-2, generate
   1,  240,    1
*Elset, elset=Set-2, generate
   1,  112,    1
** Section: Beam
*Solid Section, elset=Set-2, material="Aluminum 6061"
,
*End Part
**  
**
** ASSEMBLY
**
*Assembly, name=Assembly
**  
*Instance, name=Part-1-1, part=Part-1
*End Instance
**  
*Nset, nset=Set-2, instance=Part-1-1
 16,
*Nset, nset=Set-3, instance=Part-1-1
 16,
*Nset, nset=Set-4, instance=Part-1-1
 8,
*Nset, nset="Support Set", instance=Part-1-1
 240,
*End Assembly
** 
** MATERIALS
** 
*Material, name="Aluminum 6061"
*Elastic
 7.68e+08, 0.33
** 
** BOUNDARY CONDITIONS
** 
** Name: BC-2 Type: Displacement/Rotation
*Boundary
Set-3, 1, 1
Set-3, 3, 3
** Name: fixed support Type: Symmetry/Antisymmetry/Encastre
*Boundary
"Support Set", PINNED
** ----------------------------------------------------------------
** 
** STEP: load
** 
*Step, name=load, nlgeom=NO
Load step
*Static
1., 1., 1e-05, 1.
** 
** LOADS
** 
** Name: Load-1   Type: Concentrated force
*Cload
Set-4, 1, 100.
Set-4, 2, 100.
Set-4, 3, 1000.
** 
** OUTPUT REQUESTS
** 
*Restart, write, frequency=0
** 
** FIELD OUTPUT: F-Output-1
** 
*Output, field, variable=PRESELECT
** 
** HISTORY OUTPUT: H-Output-1
** 
*Output, history, variable=PRESELECT
*End Step
