*Heading
** Job name: Job-1 Model name: Model-1
** Generated by: Abaqus/CAE Student Edition 2019
*Preprint, echo=NO, model=NO, history=NO, contact=NO
**
** PARTS
**
*Part, name=Part-1
*Node
      1,  0.349999994,           0.
      2, -0.649999976,           0.
      3,  -1.64999998,           0.
      4, -0.647899151,           0.
      5, -0.645798326,           0.
      6,   -0.6436975,           0.
      7, -0.641596615,           0.
      8,  -0.63949579,           0.
      9, -0.637394965,           0.
     10, -0.635294139,           0.
     11, -0.633193254,           0.
     12, -0.631092429,           0.
     13, -0.628991604,           0.
     14, -0.626890779,           0.
     15, -0.624789894,           0.
     16, -0.622689068,           0.
     17, -0.620588243,           0.
     18, -0.618487418,           0.
     19, -0.616386533,           0.
     20, -0.614285707,           0.
** ... 933 like lines cut
*Element, type=B21
  1,   2,   4
  2,   4,   5
  3,   5,   6
  4,   6,   7
  5,   7,   8
  6,   8,   9
  7,   9,  10
  8,  10,  11
  9,  11,  12
 10,  12,  13
 11,  13,  14
 12,  14,  15
 13,  15,  16
 14,  16,  17
 15,  17,  18
 16,  18,  19
 17,  19,  20
 18,  20,  21
 19,  21,  22
 20,  22,  23
** ... 932 like lines cut
*Nset, nset=All
   1,   2,   4,   5,   6,   7,   8,   9,  10,  11,  12,  13,  14,  15,  16,  17
  18,  19,  20,  21,  22,  23,  24,  25,  26,  27,  28,  29,  30,  31,  32,  33
  34,  35,  36,  37,  38,  39,  40,  41,  42,  43,  44,  45,  46,  47,  48,  49
  50,  51,  52,  53,  54,  55,  56,  57,  58,  59,  60,  61,  62,  63,  64,  65
  66,  67,  68,  69,  70,  71,  72,  73,  74,  75,  76,  77,  78,  79,  80,  81
  82,  83,  84,  85,  86,  87,  88,  89,  90,  91,  92,  93,  94,  95,  96,  97
  98,  99, 100, 101, 102, 103, 104, 105, 106, 107, 108, 109, 110, 111, 112, 113
 114, 115, 116, 117, 118, 119, 120, 121, 122, 123, 124, 125, 126, 127, 128, 129
 130, 131, 132, 133, 134, 135, 136, 137, 138, 139, 140, 141, 142, 143, 144, 145
 146, 147, 148, 149, 150, 151, 152, 153, 154, 155, 156, 157, 158, 159, 160, 161
 162, 163, 164, 165, 166, 167, 168, 169, 170, 171, 172, 173, 174, 175, 176, 177
 178, 179, 180, 181, 182, 183, 184, 185, 186, 187, 188, 189, 190, 191, 192, 193
 194, 195, 196, 197, 198, 199, 200, 201, 202, 203, 204, 205, 206, 207, 208, 209
 210, 211, 212, 213, 214, 215, 216, 217, 218, 219, 220, 221, 222, 223, 224, 225
 226, 227, 228, 229, 230, 231, 232, 233, 234, 235, 236, 237, 238, 239, 240, 241
 242, 243, 244, 245, 246, 247, 248, 249, 250, 251, 252, 253, 254, 255, 256, 257
 258, 259, 260, 261, 262, 263, 264, 265, 266, 267, 268, 269, 270, 271, 272, 273
 274, 275, 276, 277, 278, 279, 280, 281, 282, 283, 284, 285, 286, 287, 288, 289
 290, 291, 292, 293, 294, 295, 296, 297, 298, 299, 300, 301, 302, 303, 304, 305
 306, 307, 308, 309, 310, 311, 312, 313, 314, 315, 316, 317, 318, 319, 320, 321
** ... 10 like lines cut
*Elset, elset=All, generate
   1,  476,    1
*Nset, nset=Loading_Point2
 2,
*Nset, nset=Set-5, generate
   1,  953,    1
*Elset, elset=Set-5, generate
   1,  952,    1
** Region: (Pipe:Set-5), (Beam Orientation:All)
*Elset, elset=_I1, internal, generate
   1,  476,    1
** Section: Pipe  Profile: Pipe_Profile
*Beam Section, elset=_I1, material=Aluminum-6061, poisson = 0.33, temperature=GRADIENTS, section=PIPE
0.0252, 0.00615
0.,0.,-1.
** Region: (Pipe:Set-5)
*Elset, elset=_I2, internal, generate
 477,  952,    1
** Section: Pipe  Profile: Pipe_Profile
*Beam Section, elset=_I2, material=Aluminum-6061, poisson = 0.33, temperature=GRADIENTS, section=PIPE
0.0252, 0.00615
0.,0.,-1.
*End Part
**  
**
** ASSEMBLY
**
*Assembly, name=Assembly
**  
*Instance, name=Part-1-1, part=Part-1
*End Instance
**  
*Nset, nset="Left Support", instance=Part-1-1
 2,
*Nset, nset=Left_Support, instance=Part-1-1
 3,
*Nset, nset=Right_Support, instance=Part-1-1
 1,
*Nset, nset=Set-4, instance=Part-1-1
 2,
*End Assembly
** 
** MATERIALS
** 
*Material, name=Aluminum-6061
*Elastic
 7e+10, 0.33
** ----------------------------------------------------------------
** 
** STEP: Load
** 
*Step, name=Load, nlgeom=NO
Load Step
*Static
1., 1., 1e-05, 1.
** 
** BOUNDARY CONDITIONS
** 
** Name: Left_Support Type: Displacement/Rotation
*Boundary
Left_Support, 1, 1
** 
** LOADS
** 
** Name: Load   Type: Concentrated force
*Cload
Right_Support, 1, -1000.
Right_Support, 2, 0.
** 
** OUTPUT REQUESTS
** 
*Restart, write, frequency=0
** 
** FIELD OUTPUT: F-Output-1
** 
*Output, field, variable=PRESELECT
** 
** HISTORY OUTPUT: H-Output-1
** 
*Output, history, variable=PRESELECT
*End Step
