*Heading
** Job name: Job-1 Model name: Model-1
** Generated by: Abaqus/CAE Student Edition 2019
*Preprint, echo=NO, model=NO, history=NO, contact=NO
**
** PARTS
**
*Part, name=Kevlar_Membrane
*Node
      1,  0.937242746,   2.03759599,           0.
      2,   1.77157855,   1.56175578,           0.
      3,   2.42953444,  0.862017035,           0.
      4,           0.,   2.24763465,           0.
      5,   2.85316968, 1.99816288e-08,           0.
      6,   2.68110228, 1.99816288e-08,  0.975841463
      7,   2.18565464, 1.99816288e-08,   1.83398199
      8,   1.42658484, 1.99816288e-08,   2.47091722
      9,  0.495447695, 1.99816288e-08,   2.80982351
     10, -0.495447695, 1.99816288e-08,   2.80982351
     11,  -1.42658484, 1.9981627e-08,   2.47091722
     12,  -2.18565464, 1.9981627e-08,   1.83398199
     13,  -2.68110228, 1.9981627e-08,  0.975841463
     14,  -2.85316968, 1.9981627e-08,           0.
     15,  -2.68110228, 1.9981627e-08, -0.975841463
     16,  -2.18565464, 1.9981627e-08,  -1.83398199
     17,  -1.42658484, 1.9981627e-08,  -2.47091722
     18, -0.495447695, 1.99816288e-08,  -2.80982351
     19,  0.495447695, 1.99816288e-08,  -2.80982351
     20,   1.42658484, 1.99816288e-08,  -2.47091722
** ... 45 like lines cut
*Element, type=S3
1, 37, 34, 35
2, 63, 45, 42
*Element, type=S4R
 3, 20, 27, 52, 21
 4, 22, 23,  3,  5
 5, 24, 26,  1,  2
 6, 23, 24,  2,  3
 7, 25, 52, 27, 28
 8, 28, 27, 29, 31
 9, 27, 20, 19, 29
10, 31, 32, 30, 50
11, 33, 17, 16, 58
12, 58, 16, 15, 36
13, 64, 33, 58, 35
14, 30, 35, 34, 60
15, 32, 56, 33, 64
16, 36, 37, 35, 58
17, 36, 38, 41, 37
18, 44,  4, 39, 55
19, 37, 41, 39, 34
20, 14, 38, 36, 15
21, 43, 11, 10, 54
22, 57,  8,  7, 61
** ... 34 like lines cut
*Nset, nset=Set-1, generate
  1,  65,   1
*Elset, elset=Set-1, generate
  1,  56,   1
** Section: Kevlar_Section
*Shell Section, elset=Set-1, material=kevlar
0.01, 5
*End Part
**  
*Part, name=Part-2
*Node
      1,   2.42705107,   1.76335573,           0.
      2,  0.927051008,   2.85316944,           0.
      3,          1.5,   2.06457281,   1.57719338
      4,           0.,   1.57719338,   2.55195236
      5,         -1.5,  0.487379551,   2.55195236
      6, -0.927051008,  -1.27597618,   2.55195236
      7,  0.927051008,  -1.27597618,   2.55195236
      8,          1.5,  0.487379551,   2.55195236
      9,           0.,   2.68328166,   1.34164083
     10, -0.927051008,   2.85316944,           0.
     11,  -2.42705107,   1.76335573,           0.
     12,         -1.5,   2.06457281,   1.57719338
     13,   2.55195236,  0.829179585,   1.34164083
     14,           0.,           0.,           3.
     15,  -2.55195236,  0.829179585,   1.34164083
     16,          -3.,           0.,           0.
     17,  -2.42705107,  -1.76335573,           0.
     18,  -2.42705107,  -0.78859669,   1.57719338
     19,  -1.57719338,  -2.17082047,   1.34164083
     20, -0.927051008,  -2.85316944,           0.
** ... 71 like lines cut
*Element, type=B31
1,  1, 27
2, 27,  2
3,  2, 28
4, 28,  3
5,  3, 29
6, 29,  4
7,  5, 30
8, 30,  4
 9,  6, 31
10, 31,  5
11,  7, 32
12, 32,  6
13,  8, 33
14, 33,  7
15,  4, 34
16, 34,  8
17,  4, 35
18, 35,  9
19,  9, 36
20, 36,  2
** ... 110 like lines cut
*Nset, nset=All_Members, generate
  1,  91,   1
*Elset, elset=All_Members, generate
   1,  130,    1
** Section: Bean Section  Profile: Circular_Bar
*Beam Section, elset=All_Members, material=Aluminum_6061, temperature=GRADIENTS, section=CIRC
0.025
0.,0.,-1.
*End Part
**  
**
** ASSEMBLY
**
*Assembly, name=Assembly
**  
*Instance, name=Part-2-1, part=Part-2
*End Instance
**  
*Instance, name=Kevlar_Membrane-1, part=Kevlar_Membrane
4.75527868621875e-11, 1.39665972120895e-08, -1.99816283519283e-08
4.75527868621875e-11, 1.39665972120895e-08, -1.99816283519283e-08, 0.577350269237179, -0.577350255223029, -0.577350289171254,         120.
*End Instance
**  
*Nset, nset=Geodesic_Frame, instance=Part-2-1, generate
  1,  91,   1
*Elset, elset=Geodesic_Frame, instance=Part-2-1, generate
   1,  130,    1
*Nset, nset=Mounting_Points, instance=Part-2-1
  1,  2, 10, 11, 16, 17, 20, 21, 24, 25, 27, 37, 38, 49, 50, 55
 56, 61, 62, 67
*Nset, nset=Set-2, instance=Part-2-1
 23,
*Nset, nset=Set-5, instance=Kevlar_Membrane-1, generate
  5,  22,   1
*Elset, elset=Set-5, instance=Kevlar_Membrane-1
  3,  4,  9, 11, 12, 20, 21, 22, 24, 26, 27, 29, 36, 38, 44, 49
 53, 55
*Nset, nset=s_Set-6, instance=Part-2-1, generate
  1,  91,   1
*Elset, elset=s_Set-6, instance=Part-2-1, generate
   1,  130,    1
*Nset, nset=s_Set-7, instance=Part-2-1, generate
  1,  91,   1
*Elset, elset=s_Set-7, instance=Part-2-1, generate
   1,  130,    1
*Nset, nset=s_Set-8, instance=Part-2-1, generate
  1,  91,   1
*Elset, elset=s_Set-8, instance=Part-2-1, generate
   1,  130,    1
*Elset, elset=_Surf-3_SPOS, internal, instance=Kevlar_Membrane-1, generate
  1,  56,   1
*Surface, type=ELEMENT, name=Surf-3
_Surf-3_SPOS, SPOS
*Elset, elset=_m_Surf-4_SPOS, internal, instance=Kevlar_Membrane-1, generate
  1,  56,   1
*Surface, type=ELEMENT, name=m_Surf-4
_m_Surf-4_SPOS, SPOS
*Elset, elset=_m_Surf-5_SPOS, internal, instance=Kevlar_Membrane-1, generate
  1,  56,   1
*Surface, type=ELEMENT, name=m_Surf-5
_m_Surf-5_SPOS, SPOS
*Elset, elset=_m_Surf-6_SPOS, internal, instance=Kevlar_Membrane-1, generate
  1,  56,   1
*Surface, type=ELEMENT, name=m_Surf-6
_m_Surf-6_SPOS, SPOS
*Surface, type=NODE, name=s_Set-8_CNS_, internal
s_Set-8, 1.
*End Assembly
*Amplitude, name=Amp-1
             0.,              0.,              1.,              1.
** 
** MATERIALS
** 
*Material, name=Aluminum_6061
*Elastic
 7e+10, 0.33
*Material, name=kevlar
*Elastic
10000., 0.36
** 
** INTERACTION PROPERTIES
** 
*Surface Interaction, name=IntProp-1
1.,
*Friction, slip tolerance=0.005
 0.12,
** 
** INTERACTIONS
** 
** Interaction: Int-1
*Contact Pair, interaction=IntProp-1, type=SURFACE TO SURFACE, no thickness
s_Set-8_CNS_, m_Surf-6
** ----------------------------------------------------------------
** 
** STEP: Load
** 
*Step, name=Load, nlgeom=NO
*Static
1., 1., 1e-05, 1.
** 
** BOUNDARY CONDITIONS
** 
** Name: BC-1 Type: Displacement/Rotation
*Boundary
Mounting_Points, 1, 1
Mounting_Points, 2, 2
Mounting_Points, 3, 3
** Name: BC-2 Type: Displacement/Rotation
*Boundary
Set-5, 1, 1
Set-5, 2, 2
Set-5, 3, 3
** 
** LOADS
** 
** Name: Load-1   Type: Pressure
*Dsload, amplitude=Amp-1
Surf-3, P, -101325.
** 
** OUTPUT REQUESTS
** 
*Restart, write, frequency=0
** 
** FIELD OUTPUT: F-Output-1
** 
*Output, field, variable=PRESELECT
** 
** HISTORY OUTPUT: H-Output-1
** 
*Output, history, variable=PRESELECT
*End Step
